<?xml version="1.0"?>

<!-- generated on 12/20/11 10:51:10 by SUMO jtrrouter Version dev-SVN-r11604
<?xml version="1.0" encoding="UTF-8"?>

<configuration xmlns:xsi="http://www.w3.org/2001/XMLSchema-instance" xsi:noNamespaceSchemaLocation="https://sumo.sf.net/xsd/jtrrouterConfiguration.xsd">

    <input>
        <net-file value="ExpGw01.net.xml"/>
        <flow-files value="ExpGw01.flows.xml"/>
    </input>

    <output>
        <output-file value="ExpGw01.rou.xml"/>
    </output>

    <processing>
        <ignore-errors value="true"/>
        <randomize-flows value="true"/>
        <turn-defaults value="0,100,0"/>
        <sink-edges value="gneE29, gneE26"/>
    </processing>

</configuration>
-->

<routes xmlns:xsi="http://www.w3.org/2001/XMLSchema-instance" xsi:noNamespaceSchemaLocation="https://sumo.sf.net/xsd/routes_file.xsd">
    <flow id="S10" begin="0.00" period="exp(0.07)">
        <route edges="gneE20 gneE19"/>
    </flow>
    <flow id="S30" begin="0.00" period="exp(0.07)">
        <route edges="gneE23 gneE16"/>
    </flow>
    <flow id="N10" begin="0.00" period="exp(0.07)">
        <route edges="gneE12 gneE13"/>
    </flow>
    <flow id="N30" begin="0.00" period="exp(0.07)">
        <route edges="gneE24 gneE17"/>
    </flow>
    <flow id="W30" begin="3.00" period="exp(0.15)">
        <route edges="gneE27 gneE25 gneE18 gneE29"/>
    </flow>
    <flow id="O10" begin="7.00" period="exp(0.15)">
        <route edges="gneE28 gneE10 gneE11 gneE26"/>
    </flow>
    <flow id="S20_0" begin="18.00" period="exp(0.05)">
        <route edges="gneE14 gneE15"/>
    </flow>
    <flow id="N20_0" begin="20.00" period="exp(0.05)">
        <route edges="gneE21 gneE22"/>
    </flow>
</routes>
