<?xml version="1.0" encoding="UTF-8"?>

<!-- generated on 2025-09-14 10:41:09.116686 by randomTrips.py v1_24_0+0000-b72eb3fabc8
<configuration>
    <net-file value="connaught_place.net.xml"/>
    <output-trip-file value="connaught_place.rou.xml"/>
    <end value="200.0"/>
</configuration>
-->

<routes xmlns:xsi="http://www.w3.org/2001/XMLSchema-instance" xsi:noNamespaceSchemaLocation="http://sumo.dlr.de/xsd/routes_file.xsd">
    <trip id="0" depart="0.00" from="391534135#2" to="-1121139432#0"/>
    <trip id="1" depart="1.00" from="-707566696#2" to="-562499724#5"/>
    <trip id="2" depart="2.00" from="563791811#5" to="561672574#1"/>
    <trip id="3" depart="3.00" from="717454372" to="-164675827#6"/>
    <trip id="4" depart="4.00" from="1312753969#1" to="-1121142413#4"/>
    <trip id="5" depart="5.00" from="-561672577#0" to="24577483#2"/>
    <trip id="6" depart="6.00" from="-1121139429#1" to="-553590474#4"/>
    <trip id="7" depart="7.00" from="44263461#1" to="24583327#9"/>
    <trip id="8" depart="8.00" from="-562499723" to="253307767#6"/>
    <trip id="9" depart="9.00" from="611866602#1" to="-1076510349#0"/>
    <trip id="10" depart="10.00" from="1075734524#1" to="-265975966#1"/>
    <trip id="11" depart="11.00" from="995792406#4" to="1076510349#1"/>
    <trip id="12" depart="12.00" from="-154356520#5" to="-235103610#4"/>
    <trip id="13" depart="13.00" from="665921719" to="291266017#7"/>
    <trip id="14" depart="14.00" from="596373342" to="563791811#0"/>
    <trip id="15" depart="15.00" from="24582921#6" to="996679780#1"/>
    <trip id="16" depart="16.00" from="1123316542" to="24583487#0"/>
    <trip id="17" depart="17.00" from="614072000" to="370761286#7"/>
    <trip id="18" depart="18.00" from="700293874#0" to="24583593#3"/>
    <trip id="19" depart="19.00" from="562499724#6" to="-1153925787#3"/>
    <trip id="20" depart="20.00" from="-562499724#17" to="-74851423#7"/>
    <trip id="21" depart="21.00" from="-142865883#10" to="-612734124#1"/>
    <trip id="22" depart="22.00" from="-164684411#3" to="-717454379#1"/>
    <trip id="23" depart="23.00" from="38699591#7" to="1121142413#2"/>
    <trip id="24" depart="24.00" from="1121186660#0" to="-561672577#0"/>
    <trip id="25" depart="25.00" from="-700293880#1" to="760480736"/>
    <trip id="26" depart="26.00" from="442157836" to="291266019#0"/>
    <trip id="27" depart="27.00" from="-291266017#2" to="563679836#9"/>
    <trip id="28" depart="28.00" from="-253307767#6" to="1138292933#2"/>
    <trip id="29" depart="29.00" from="998790351#2" to="391534135#6"/>
    <trip id="30" depart="30.00" from="24583488#2" to="562340247#4"/>
    <trip id="31" depart="31.00" from="662886374#1" to="572511732#8"/>
    <trip id="32" depart="32.00" from="-562499724#19" to="-1121186660#0"/>
    <trip id="33" depart="33.00" from="-995792406#5" to="-712992080#1"/>
    <trip id="34" depart="34.00" from="-553590476#1" to="80499778#0"/>
    <trip id="35" depart="35.00" from="446922590#3" to="1252826818#1"/>
    <trip id="36" depart="36.00" from="74851423#0" to="164675827#0"/>
    <trip id="37" depart="37.00" from="-700293879#1" to="-700293875#0"/>
    <trip id="38" depart="38.00" from="24583491#2" to="-707566696#1"/>
    <trip id="39" depart="39.00" from="24583597" to="717454377#1"/>
    <trip id="40" depart="40.00" from="998790358#6" to="24577487#0"/>
    <trip id="41" depart="41.00" from="-154356520#3" to="-1240749877"/>
    <trip id="42" depart="42.00" from="-24582918#0" to="38699591#10"/>
    <trip id="43" depart="43.00" from="579781481#6" to="1312753969#0"/>
    <trip id="44" depart="44.00" from="-1277942000#6" to="1153925787#0"/>
    <trip id="45" depart="45.00" from="998790358#4" to="24582920#1"/>
    <trip id="46" depart="46.00" from="-1076782188#1" to="563679821#5"/>
    <trip id="47" depart="47.00" from="561672577#0" to="24582921#8"/>
    <trip id="48" depart="48.00" from="-700293880#0" to="423553702#1"/>
    <trip id="49" depart="49.00" from="-24582918#3" to="142216383"/>
    <trip id="50" depart="50.00" from="154356520#1" to="995792405"/>
    <trip id="51" depart="51.00" from="706373643" to="-707566696#2"/>
    <trip id="52" depart="52.00" from="24577480#2" to="-38699586#1"/>
    <trip id="53" depart="53.00" from="720546573#7" to="700293878#1"/>
    <trip id="54" depart="54.00" from="-74851423#4" to="391534135#5"/>
    <trip id="55" depart="55.00" from="291266018#3" to="-253307767#6"/>
    <trip id="56" depart="56.00" from="572511732#8" to="24582921#1"/>
    <trip id="57" depart="57.00" from="-103176785#0" to="1040444893#0"/>
    <trip id="58" depart="58.00" from="-1076782195#2" to="750482273#1"/>
    <trip id="59" depart="59.00" from="707566695#0" to="615556515#1"/>
    <trip id="60" depart="60.00" from="-750482273#6" to="-1306141818#0"/>
    <trip id="61" depart="61.00" from="707566694" to="80499778#6"/>
    <trip id="62" depart="62.00" from="-142865883#9" to="235103610#1"/>
    <trip id="63" depart="63.00" from="-1306141818#0" to="570616026#11"/>
    <trip id="64" depart="64.00" from="570616026#5" to="-24583495#5"/>
    <trip id="65" depart="65.00" from="23133600#12" to="24583332#5"/>
    <trip id="66" depart="66.00" from="-700293879#1" to="700293879#2"/>
    <trip id="67" depart="67.00" from="1312753970#1" to="-562499724#0"/>
    <trip id="68" depart="68.00" from="24583327#0" to="563791811#0"/>
    <trip id="69" depart="69.00" from="-44263461#2" to="-998790358#13"/>
    <trip id="70" depart="70.00" from="142865883#4" to="24577488#6"/>
    <trip id="71" depart="71.00" from="-24582921#3" to="-562499724#7"/>
    <trip id="72" depart="72.00" from="1074774612#0" to="253307767#4"/>
    <trip id="73" depart="73.00" from="-562499724#2" to="-562499724#2"/>
    <trip id="74" depart="74.00" from="-562499724#19" to="717454380#1"/>
    <trip id="75" depart="75.00" from="686920282" to="-142865883#4"/>
    <trip id="76" depart="76.00" from="-612734121#0" to="553590476#0"/>
    <trip id="77" depart="77.00" from="-553590478#2" to="-24583587#1"/>
    <trip id="78" depart="78.00" from="750482273#8" to="24583592#1"/>
    <trip id="79" depart="79.00" from="23133600#1" to="579781481#1"/>
    <trip id="80" depart="80.00" from="596373346" to="-44263461#1"/>
    <trip id="81" depart="81.00" from="-164675827#5" to="1384226015"/>
    <trip id="82" depart="82.00" from="563679836#5" to="553590482#0"/>
    <trip id="83" depart="83.00" from="997761545" to="-24577118#1"/>
    <trip id="84" depart="84.00" from="1277942000#0" to="1076627690"/>
    <trip id="85" depart="85.00" from="700293874#0" to="-700293875#2"/>
    <trip id="86" depart="86.00" from="-391534135#1" to="154356516#2"/>
    <trip id="87" depart="87.00" from="1312753969#1" to="-717454379#2"/>
    <trip id="88" depart="88.00" from="-686673952#3" to="74851424#1"/>
    <trip id="89" depart="89.00" from="154090267#1" to="686925958"/>
    <trip id="90" depart="90.00" from="24583332#2" to="-1277942000#3"/>
    <trip id="91" depart="91.00" from="998790358#9" to="615556519#3"/>
    <trip id="92" depart="92.00" from="665921722" to="-291266018#0"/>
    <trip id="93" depart="93.00" from="235103610#1" to="-562499724#11"/>
    <trip id="94" depart="94.00" from="1277941998#1" to="-1306141818#1"/>
    <trip id="95" depart="95.00" from="1138292933#0" to="997761545"/>
    <trip id="96" depart="96.00" from="-700293879#1" to="579781481#0"/>
    <trip id="97" depart="97.00" from="154356520#3" to="1312753969#1"/>
    <trip id="98" depart="98.00" from="995792406#4" to="998790358#3"/>
    <trip id="99" depart="99.00" from="24583488#1" to="563679821#2"/>
    <trip id="100" depart="100.00" from="-24583594#1" to="-750482273#5"/>
    <trip id="101" depart="101.00" from="24583327#3" to="563974735#10"/>
    <trip id="102" depart="102.00" from="-1234918800" to="24583597"/>
    <trip id="103" depart="103.00" from="24577482#0" to="686673952#0"/>
    <trip id="104" depart="104.00" from="-24583596#1" to="995793691"/>
    <trip id="105" depart="105.00" from="-142865883#2" to="-423563749#0"/>
    <trip id="106" depart="106.00" from="265975966#4" to="553596950"/>
    <trip id="107" depart="107.00" from="-562499724#8" to="-24583488#3"/>
    <trip id="108" depart="108.00" from="714986188#1" to="-700293874#1"/>
    <trip id="109" depart="109.00" from="265975966#4" to="370765175#0"/>
    <trip id="110" depart="110.00" from="1306164414" to="24583596#1"/>
    <trip id="111" depart="111.00" from="24582918#0" to="750482273#7"/>
    <trip id="112" depart="112.00" from="-553588769#1" to="563679820#9"/>
    <trip id="113" depart="113.00" from="-612734121#1" to="1252826818#1"/>
    <trip id="114" depart="114.00" from="553590474#6" to="-993539158#0"/>
    <trip id="115" depart="115.00" from="-995792406#6" to="563974735#6"/>
    <trip id="116" depart="116.00" from="-1307182526" to="154356520#5"/>
    <trip id="117" depart="117.00" from="998790358#7" to="998790358#4"/>
    <trip id="118" depart="118.00" from="-1374634869#0" to="-562499724#10"/>
    <trip id="119" depart="119.00" from="-700293879#1" to="750482273#5"/>
    <trip id="120" depart="120.00" from="707566696#1" to="707245217"/>
    <trip id="121" depart="121.00" from="1121142415" to="-265975966#4"/>
    <trip id="122" depart="122.00" from="615556519#0" to="562499724#9"/>
    <trip id="123" depart="123.00" from="31056641" to="997761547"/>
    <trip id="124" depart="124.00" from="446922581#1" to="-1076510349#1"/>
    <trip id="125" depart="125.00" from="611866606#1" to="-750482273#9"/>
    <trip id="126" depart="126.00" from="523568284#3" to="80414533#1"/>
    <trip id="127" depart="127.00" from="-24583491#2" to="-24582921#9"/>
    <trip id="128" depart="128.00" from="-235103610#4" to="24583487#2"/>
    <trip id="129" depart="129.00" from="-707566695#0" to="291266017#8"/>
    <trip id="130" depart="130.00" from="563679820#6" to="-553590478#1"/>
    <trip id="131" depart="131.00" from="38699591#5" to="-707566696#3"/>
    <trip id="132" depart="132.00" from="24577096#0" to="717454380#1"/>
    <trip id="133" depart="133.00" from="662886377#1" to="-223906999#0"/>
    <trip id="134" depart="134.00" from="1312753970#2" to="-717454378"/>
    <trip id="135" depart="135.00" from="-1040444893#1" to="572511732#1"/>
    <trip id="136" depart="136.00" from="38699591#9" to="-707566696#0"/>
    <trip id="137" depart="137.00" from="563974730#2" to="24583487#0"/>
    <trip id="138" depart="138.00" from="1374634869#1" to="-1076782188#1"/>
    <trip id="139" depart="139.00" from="-1384226015" to="707566696#1"/>
    <trip id="140" depart="140.00" from="615556519#1" to="24583594#3"/>
    <trip id="141" depart="141.00" from="-24583592#5" to="-24583495#3"/>
    <trip id="142" depart="142.00" from="-750482273#7" to="717454377#2"/>
    <trip id="143" depart="143.00" from="596346055#2" to="686920282"/>
    <trip id="144" depart="144.00" from="717454378" to="-561672577#1"/>
    <trip id="145" depart="145.00" from="-686673952#2" to="-24582919#0"/>
    <trip id="146" depart="146.00" from="578543603#1" to="707566696#3"/>
    <trip id="147" depart="147.00" from="1277942000#5" to="370765175#1"/>
    <trip id="148" depart="148.00" from="-24583594#1" to="750482273#10"/>
    <trip id="149" depart="149.00" from="700293875#2" to="996679781#2"/>
    <trip id="150" depart="150.00" from="611866602#3" to="707566695#1"/>
    <trip id="151" depart="151.00" from="-1120299304" to="563791813"/>
    <trip id="152" depart="152.00" from="103176785#2" to="750482273#2"/>
    <trip id="153" depart="153.00" from="596373332#5" to="700293875#0"/>
    <trip id="154" depart="154.00" from="611866602#3" to="-712992080#0"/>
    <trip id="155" depart="155.00" from="579781481#1" to="-24582921#0"/>
    <trip id="156" depart="156.00" from="700293879#2" to="686781072"/>
    <trip id="157" depart="157.00" from="-562499724#10" to="612734121#0"/>
    <trip id="158" depart="158.00" from="164675827#4" to="-995792406#4"/>
    <trip id="159" depart="159.00" from="596346055#1" to="-596350935"/>
    <trip id="160" depart="160.00" from="-1119548738#0" to="-44263461#4"/>
    <trip id="161" depart="161.00" from="1000448884#1" to="700293875#0"/>
    <trip id="162" depart="162.00" from="391534135#5" to="125453679#2"/>
    <trip id="163" depart="163.00" from="997761541#6" to="24582921#7"/>
    <trip id="164" depart="164.00" from="80414533#1" to="-24582921#8"/>
    <trip id="165" depart="165.00" from="995793692#2" to="-707566696#5"/>
    <trip id="166" depart="166.00" from="-24577118#2" to="1416953189"/>
    <trip id="167" depart="167.00" from="563679836#4" to="-998790358#4"/>
    <trip id="168" depart="168.00" from="291266017#9" to="24577487#3"/>
    <trip id="169" depart="169.00" from="1153925787#3" to="24583593#2"/>
    <trip id="170" depart="170.00" from="-686920282" to="563679820#15"/>
    <trip id="171" depart="171.00" from="-103176785#2" to="74851428#1"/>
    <trip id="172" depart="172.00" from="24582921#9" to="563679821#3"/>
    <trip id="173" depart="173.00" from="563974730#3" to="553590478#0"/>
    <trip id="174" depart="174.00" from="1121139432#1" to="-142865883#3"/>
    <trip id="175" depart="175.00" from="523568284#4" to="1074774612#0"/>
    <trip id="176" depart="176.00" from="-995792406#3" to="665921717"/>
    <trip id="177" depart="177.00" from="563679820#9" to="-993539158#0"/>
    <trip id="178" depart="178.00" from="-750482273#8" to="1277942000#5"/>
    <trip id="179" depart="179.00" from="1277941999#1" to="-750482273#4"/>
    <trip id="180" depart="180.00" from="-24583487#2" to="1306164414"/>
    <trip id="181" depart="181.00" from="80414533#3" to="561672574#2"/>
    <trip id="182" depart="182.00" from="717454379#5" to="370761286#3"/>
    <trip id="183" depart="183.00" from="-74851423#8" to="24583332#2"/>
    <trip id="184" depart="184.00" from="-103176785#0" to="-74851423#3"/>
    <trip id="185" depart="185.00" from="1384226015" to="24583594#0"/>
    <trip id="186" depart="186.00" from="142865883#9" to="-562499724#11"/>
    <trip id="187" depart="187.00" from="23133600#1" to="717454379#1"/>
    <trip id="188" depart="188.00" from="596346055#2" to="-343654534#1"/>
    <trip id="189" depart="189.00" from="-142865883#8" to="24577488#3"/>
    <trip id="190" depart="190.00" from="38699591#3" to="1076510348"/>
    <trip id="191" depart="191.00" from="612734121#1" to="563974735#5"/>
    <trip id="192" depart="192.00" from="553590476#1" to="-562499724#7"/>
    <trip id="193" depart="193.00" from="-442157836" to="-1121139431"/>
    <trip id="194" depart="194.00" from="-612734126#1" to="23133600#12"/>
    <trip id="195" depart="195.00" from="686657381" to="-142865883#7"/>
    <trip id="196" depart="196.00" from="-423553702#0" to="562499724#18"/>
    <trip id="197" depart="197.00" from="24577118#0" to="-686814926#1"/>
    <trip id="198" depart="198.00" from="446922590#4" to="-1074774612#1"/>
    <trip id="199" depart="199.00" from="563974735#10" to="572511732#0"/>
</routes>
