<?xml version="1.0" encoding="UTF-8"?>

<!-- generated on 2025-09-14 10:41:10.148474 by randomTrips.py v1_24_0+0000-b72eb3fabc8
<configuration>
    <net-file value="connaught_place.net.xml"/>
    <output-trip-file value="connaught_place.rou.xml"/>
    <end value="200.0"/>
</configuration>
-->

<!-- generated on 2025-09-14 10:41:09 by Eclipse SUMO duarouter Version 1.24.0
<duarouterConfiguration xmlns:xsi="http://www.w3.org/2001/XMLSchema-instance" xsi:noNamespaceSchemaLocation="http://sumo.dlr.de/xsd/duarouterConfiguration.xsd">

    <input>
        <net-file value="connaught_place.net.xml"/>
        <route-files value="connaught_place.rou.xml"/>
    </input>

    <output>
        <output-file value="routes.rou.xml"/>
        <alternatives-output value="NUL"/>
    </output>

    <time>
        <begin value="0"/>
        <end value="200.0"/>
    </time>

    <report>
        <no-warnings value="true"/>
        <ignore-errors value="true"/>
        <no-step-log value="true"/>
    </report>

</duarouterConfiguration>
-->

<routes xmlns:xsi="http://www.w3.org/2001/XMLSchema-instance" xsi:noNamespaceSchemaLocation="http://sumo.dlr.de/xsd/routes_file.xsd">
    <vehicle id="0" depart="0.00">
        <route edges="391534135#2 391534135#3 391534135#4 391534135#5 391534135#6 23133486#10 23133486#11 23133486#12 23133486#13 23133486#14 23133486#15 23133486#16 23133486#17 23133486#18 23133486#19 23133486#20 23133486#21 23133486#22 23133486#23 23133486#24 23133486#25 23133486#26 23133486#0 23133486#1 23133486#2 23133486#3 23133486#4 23133486#5 24577482#0 24577482#1 24577482#2 1375201075 760480737 578543603#1 578543603#2 578543603#3 578543603#4 611866604#0 611866604#1 611866602#0 611866602#1 611866602#2 611866602#3 611866602#4 1153925787#4 74851423#0 74851423#1 74851423#2 74851423#3 74851423#4 74851423#5 74851423#6 700293877#1 -1121139432#0"/>
    </vehicle>
    <vehicle id="1" depart="1.00">
        <route edges="-707566696#2 -707566696#1 -707566696#0 563679820#12 563679820#13 563679820#14 563679820#15 563679820#16 563679820#17 665921722 523568284#0 996679780#0 996679780#1 996679780#2 563974735#0 563974735#1 24583592#0 24583592#1 24583592#2 24583592#3 -562499724#17 -562499724#16 -562499724#15 -562499724#14 -562499724#13 -562499724#12 -562499724#11 -562499724#10 -562499724#9 -562499724#8 -562499724#7 -562499724#6 -562499724#5"/>
    </vehicle>
    <vehicle id="2" depart="2.00">
        <route edges="563791811#5 563791811#6 563791811#7 563791811#8 563679820#0 563679820#1 563679820#2 563679820#3 563679820#4 563679820#5 563679820#6 563679820#7 563679820#8 563679820#9 563679820#10 563679820#11 563679820#12 563679820#13 563679820#14 563679820#15 563679820#16 563679820#17 665921722 523568284#0 523568284#1 523568284#2 523568284#3 -1123316542 997761541#2 997761541#3 561672574#0 561672574#1"/>
    </vehicle>
    <vehicle id="3" depart="3.00">
        <route edges="717454372 -717454379#3 -717454378 38699591#6 38699591#7 38699591#8 38699591#9 38699591#10 38699591#11 38699591#12 28103794#3 28103794#4 572511732#0 572511732#1 572511732#2 572511732#3 572511732#4 572511732#5 572511732#6 572511732#7 572511732#8 446922591 760480736 562340247#0 562340247#1 562340247#2 562340247#3 562340247#4 562340247#5 562340243 570616026#0 570616026#1 570616026#2 164675827#0 164675827#1 164675827#2 164675827#3 164675827#4 164675827#5 164675827#6 164675827#7 -164675827#7 -164675827#6"/>
    </vehicle>
    <vehicle id="4" depart="4.00">
        <route edges="1312753969#1 665921720 665921719 665921717 1312753970#0 1312753970#1 1312753970#2 1312753970#3 996679780#0 996679780#1 996679780#2 563974735#0 563974735#1 24583592#0 24583592#1 24583592#2 24583592#3 562499724#18 562499724#19 562499724#20 720546573#4 720546573#5 720546573#6 -1121142413#4"/>
    </vehicle>
    <vehicle id="5" depart="5.00">
        <route edges="-561672577#0 -561672574#0 997761541#4 997761541#5 997761541#6 997761541#7 997761541#8 997761541#9 24583333#1 24583333#2 24583333#3 24583333#4 24583333#5 24583333#6 446922584#0 446922584#1 446922586#0 446922586#1 995113415 570859666#0 570859666#1 570859666#2 446922583#0 446922583#1 722082942 447141131#0 447141131#1 447141131#2 1076627689#0 1076627689#1 1076627690 562439576 996679781#0 996679781#1 996679781#2 996679781#3 80499778#0 80499778#1 80499778#2 80499778#3 80499778#4 80499778#5 80499778#6 562340247#0 562340247#1 562340247#2 562340247#3 562340247#4 562340247#5 562340245 23133709#0 23133709#1 23133709#2 23133709#3 23133709#4 23133709#5 24577480#0 24577480#1 24577480#2 23133600#0 23133600#1 23133600#2 23133600#3 23133600#4 23133600#5 23133600#6 23133600#7 23133600#8 24577483#1 24577483#2"/>
    </vehicle>
    <vehicle id="6" depart="6.00">
        <route edges="-1121139429#1 -1121139429#0 -74851423#4 -74851423#3 -74851423#2 -686814926#0 -553590474#4"/>
    </vehicle>
    <vehicle id="7" depart="7.00">
        <route edges="44263461#1 44263461#2 44263461#3 44263461#4 44263461#5 -44263461#5 -44263461#4 -44263461#3 -44263461#2 -44263461#1 -44263461#0 -615556516 1078118953 24583332#2 1074774612#0 1074774612#1 -612734123#1 -612734123#0 -612734124#0 -24583488#1 -24583488#0 997761546#1 570616029#0 1384226015 570616028#1 1278775921#0 1278775921#1 1278775920 24577478#0 24577478#1 24577478#2 579151950 24583327#9"/>
    </vehicle>
    <vehicle id="8" depart="8.00">
        <route edges="-562499723 116046167#4 116046167#5 579781481#0 579781481#1 579781481#2 579781481#3 579781481#4 579781481#5 579781481#6 579781481#7 579781481#8 579781481#9 579781481#10 570616027 23133709#0 23133709#1 23133709#2 23133709#3 23133709#4 596373346 596373332#0 253307767#0 253307767#1 253307767#2 253307767#3 253307767#4 253307767#5 253307767#6"/>
    </vehicle>
    <vehicle id="9" depart="9.00">
        <route edges="611866602#1 611866602#2 611866602#3 611866602#4 -1153925787#3 -1153925787#2 -1153925787#1 -1076510349#2 -1076510349#1 -1076510349#0"/>
    </vehicle>
    <vehicle id="10" depart="10.00">
        <route edges="1075734524#1 24583333#6 446922584#0 446922584#1 446922586#0 446922586#1 995113415 570859666#0 570859666#1 570859666#2 446922583#0 446922583#1 722082942 447141131#0 447141131#1 447141131#2 1076627689#0 1076627689#1 1076627690 562439576 996679781#0 996679781#1 996679781#2 996679781#3 665921722 1312753971#0 1312753971#1 553596950 74851427 164782722 -265975966#5 -265975966#4 -265975966#3 -265975966#2 -265975966#1"/>
    </vehicle>
    <vehicle id="11" depart="11.00">
        <route edges="995792406#4 995792406#5 995792406#6 995792406#7 116046167#4 116046167#5 579781481#0 563791811#8 563679820#0 563679820#1 563679820#2 563679820#3 563679820#4 563679820#5 563679820#6 563679820#7 563679820#8 563679820#9 563679820#10 563679820#11 563679820#12 563679820#13 563679820#14 563679820#15 563679820#16 563679820#17 665921722 1312753971#0 1312753971#1 611866602#0 24582921#0 24582921#1 24582921#2 24582921#3 24582921#4 24582921#5 24582921#6 24582921#7 24582921#8 -1374634869#2 -1374634869#1 -1374634869#0 1076510349#0 1076510349#1"/>
    </vehicle>
    <vehicle id="12" depart="12.00">
        <route edges="-154356520#5 154356520#5 686920282 665921720 665921719 665921717 1312753970#0 1312753970#1 1312753970#2 1312753970#3 996679780#0 996679780#1 996679780#2 563974735#0 563974735#1 563974735#2 563974735#3 563974735#4 563974735#5 563974735#6 563974735#7 563974735#8 563974735#9 563974735#10 563974733#0 563974733#1 995793692#0 995793692#1 995793692#2 995793692#3 995793692#4 995793692#5 995793692#6 995793692#7 563975284#0 563975284#1 712992070 614072000 563679821#0 563679821#1 -235103610#4"/>
    </vehicle>
    <vehicle id="13" depart="13.00">
        <route edges="665921719 665921717 1312753970#0 1312753970#1 1312753970#2 1312753970#3 996679780#0 996679781#3 665921722 1312753971#0 1312753971#1 611866602#0 611866602#1 611866602#2 611866602#3 611866602#4 1153925787#4 291266019#0 291266017#0 291266017#1 291266017#2 291266017#3 291266017#4 291266017#5 291266017#6 291266017#7"/>
    </vehicle>
    <vehicle id="14" depart="14.00">
        <route edges="596373342 563975284#1 712992070 563791811#0"/>
    </vehicle>
    <vehicle id="15" depart="15.00">
        <route edges="24582921#6 24582921#7 24582921#8 24582921#9 24582918#0 24582918#1 24582918#2 24582918#3 578543603#3 578543603#4 578543603#5 578543603#6 578543603#7 523568284#0 996679780#0 996679780#1"/>
    </vehicle>
    <vehicle id="16" depart="16.00">
        <route edges="1123316542 523568284#4 523568284#5 24583333#0 24583333#1 24583333#2 24583333#3 24583333#4 24583333#5 24583333#6 446922584#0 446922584#1 446922586#0 446922586#1 995113415 570859666#0 570859666#1 570859666#2 446922583#0 446922583#1 722082942 447141131#0 447141131#1 447141131#2 1076627689#0 1076627689#1 1076627690 562439576 563974732#0 563974732#1 563974732#2 563974735#0 563974735#1 563974735#2 563974735#3 563974735#4 563974735#5 563974735#6 563974735#7 563974735#8 563974735#9 563974735#10 563974733#0 563974733#1 995793692#0 995793692#1 995793692#2 995793692#3 995793692#4 995793692#5 995793692#6 995793692#7 563975284#0 563975284#1 563974730#0 563974730#1 563974730#2 563974730#3 563974730#4 563974730#5 579151950 1066619122#0 1066619122#1 24583487#0"/>
    </vehicle>
    <vehicle id="17" depart="17.00">
        <route edges="614072000 563679821#0 563679821#1 563679821#2 563679821#3 563679821#4 563679821#5 24577480#0 24577480#1 24577480#2 23133600#0 23133600#1 23133600#2 23133600#3 1375201075 760480737 578543603#1 578543603#2 578543603#3 578543603#4 578543603#5 578543603#6 578543603#7 523568284#0 996679780#0 996679781#3 80499778#0 80499778#1 80499778#2 370761286#0 370761286#1 370761286#2 370761286#3 370761286#4 370761286#5 370761286#6 370761286#7"/>
    </vehicle>
    <vehicle id="18" depart="18.00">
        <route edges="700293874#0 -370765175#0 -142865883#7 -142865883#6 -142865883#5 -142865883#4 -142865883#3 1277942000#1 1277942000#2 1277942000#3 1277942000#4 1277942000#5 1277942000#6 1277942000#7 1277942000#8 1277941999#0 1277941999#1 24583333#4 24583333#5 24583333#6 446922584#0 446922584#1 446922586#0 446922586#1 995113415 570859666#0 570859666#1 570859666#2 446922583#0 446922583#1 722082942 447141131#0 447141131#1 720546573#0 720546573#1 24583593#0 24583593#1 24583593#2 24583593#3"/>
    </vehicle>
    <vehicle id="19" depart="19.00">
        <route edges="562499724#6 562499724#7 562499724#8 562499724#9 562499724#10 562499724#11 562499724#12 562499724#13 562499724#14 562499724#15 562499724#16 562499724#17 -24583592#3 -24583592#2 -24583592#1 -24583592#0 563974735#2 563974735#3 563974735#4 563974735#5 563974735#6 563974735#7 563974735#8 563974735#9 563974735#10 563974733#0 579781481#0 563791811#8 563679820#0 563679820#1 563679820#2 563679820#3 563679820#4 563679820#5 563679820#6 563679820#7 563679820#8 563679820#9 563679820#10 563679820#11 563679820#12 563679820#13 563679820#14 563679820#15 563679820#16 563679820#17 665921722 1312753971#0 1312753971#1 611866602#0 611866602#1 611866602#2 611866602#3 611866602#4 -1153925787#3"/>
    </vehicle>
    <vehicle id="20" depart="20.00">
        <route edges="-562499724#17 -562499724#16 -562499724#15 -562499724#14 -562499724#13 -562499724#12 -562499724#11 -562499724#10 -562499724#9 -562499724#8 -562499724#7 -562499724#6 -562499724#5 -562499724#4 -562499724#3 -562499724#2 -562499724#1 -562499724#0 -562499723 116046167#4 116046167#5 579781481#0 563791811#8 563679820#0 563679820#1 563679820#2 563679820#3 563679820#4 563679820#5 563679820#6 563679820#7 563679820#8 563679820#9 563679820#10 563679820#11 563679820#12 563679820#13 563679820#14 563679820#15 563679820#16 563679820#17 665921722 523568284#0 523568284#1 523568284#2 523568284#3 -1123316542 997761541#2 997761541#3 561672574#0 561672574#1 561672574#2 291266018#0 291266018#1 -74851423#9 -74851423#8 -74851423#7"/>
    </vehicle>
    <vehicle id="21" depart="21.00">
        <route edges="-142865883#10 -142865883#9 -142865883#8 -142865883#7 -142865883#6 -142865883#5 -142865883#4 -142865883#3 1277942000#1 1277942000#2 1277942000#3 1277942000#4 1277942000#5 1277942000#6 1277942000#7 1277942000#8 1277941999#0 1277941999#1 24583333#4 24583333#5 24583333#6 446922584#0 446922584#1 446922586#0 446922586#1 995113415 570859666#0 570859666#1 570859666#2 446922583#0 446922583#1 722082942 447141131#0 447141131#1 447141131#2 1076627689#0 1076627689#1 1076627690 562439576 996679781#0 996679781#1 996679781#2 996679781#3 80499778#0 80499778#1 80499778#2 80499778#3 80499778#4 80499778#5 80499778#6 562340247#0 562340247#1 562340247#2 562340247#3 562340247#4 562340247#5 562340245 23133709#0 23133709#1 23133709#2 23133709#3 23133709#4 23133709#5 562340241 562340248#0 562340248#1 564223496#0 564223496#1 24583332#0 24583332#1 24583332#2 1074774612#0 1074774612#1 -612734123#1 -612734123#0 612734124#1 612734124#2 -612734124#2 -612734124#1"/>
    </vehicle>
    <vehicle id="22" depart="22.00">
        <route edges="-164684411#3 164684411#3 164684411#4 164684411#5 1076782197 38699591#2 38699591#3 38699591#4 38699591#5 717454378 -717454379#2 -717454379#1"/>
    </vehicle>
    <vehicle id="23" depart="23.00">
        <route edges="38699591#7 1252826817 38699586#0 38699586#1 265975963#1 -1306141818#1 -1306141818#0 -265975966#5 1312753969#0 1312753969#1 665921720 665921719 665921717 1312753970#0 1312753970#1 1312753970#2 1312753970#3 996679780#0 996679780#1 996679780#2 563974735#0 563974735#1 24583592#0 24583592#1 24583592#2 24583592#3 562499724#18 562499724#19 562499724#20 720546573#4 720546573#5 720546573#6 720546573#7 1121142413#0 1121142413#1 1121142413#2"/>
    </vehicle>
    <vehicle id="24" depart="24.00">
        <route edges="1121186660#0 1121186661 1121186660#2 998790358#5 998790358#6 998790358#7 998790358#8 998790358#9 998790358#10 998790358#11 998790358#12 998790358#13 998790351#0 998790351#1 998790351#2 447141131#0 447141131#1 447141131#2 446922589 24583333#0 24583333#1 74851424#0 74851424#1 -1277942000#8 -1277942000#7 -1277942000#6 -1277942000#5 -1277942000#4 -1277942000#3 -561672577#1 -561672577#0"/>
    </vehicle>
    <vehicle id="25" depart="25.00">
        <route edges="-700293880#1 -74851423#2 -74851423#1 -74851423#0 -1153925787#4 -1153925787#3 -1153925787#2 -1153925787#1 -1076510349#2 -1076510349#1 -1076510349#0 1374634869#0 1374634869#1 1374634869#2 24582921#9 24582921#10 24582921#11 572511732#8 446922591 760480736"/>
    </vehicle>
    <vehicle id="26" depart="26.00">
        <route edges="442157836 -442157836 74851428#3 74851428#4 74851428#5 563791811#0 563791811#1 563791811#2 563791811#3 563791811#4 563791811#5 563791811#6 563791811#7 563791811#8 563679820#0 563679820#1 563679820#2 563679820#3 563679820#4 563679820#5 563679820#6 563679820#7 563679820#8 563679820#9 563679820#10 563679820#11 563679820#12 563679820#13 563679820#14 563679820#15 563679820#16 563679820#17 665921722 1312753971#0 1312753971#1 611866602#0 611866602#1 611866602#2 611866602#3 611866602#4 1153925787#4 291266019#0"/>
    </vehicle>
    <vehicle id="27" depart="27.00">
        <route edges="-291266017#2 -291266017#1 -291266017#0 291266019#1 1312753970#0 1312753970#1 1312753970#2 1312753970#3 996679780#0 996679780#1 996679780#2 563974735#0 563974735#1 563974735#2 563974735#3 563974735#4 563974735#5 563974735#6 563974735#7 563974735#8 563974735#9 563974735#10 563679836#0 563679836#1 563679836#2 563679836#3 563679836#4 563679836#5 563679836#6 563679836#7 563679836#8 563679836#9"/>
    </vehicle>
    <vehicle id="28" depart="28.00">
        <route edges="-253307767#6 -253307767#5 -253307767#4 -253307767#3 -253307767#2 -253307767#1 -253307767#0 596373332#1 596373332#2 596373332#3 596373332#4 614072001 563791811#2 563791811#3 563791811#4 563791811#5 563791811#6 563791811#7 563791811#8 563679820#0 563679820#1 563679820#2 563679820#3 563679820#4 563679820#5 563679820#6 563679820#7 563679820#8 563679820#9 563679820#10 563679820#11 563679820#12 563679820#13 563679820#14 563679820#15 563679820#16 563679820#17 665921722 523568284#0 523568284#1 523568284#2 523568284#3 523568284#4 523568284#5 24583333#0 24583333#1 24583333#2 24583333#3 24583333#4 1075734525#0 1075734525#1 -1287065074#1 -1287065074#0 -1138292933#4 -1138292933#3 -1138292933#2 1138292933#2"/>
    </vehicle>
    <vehicle id="29" depart="29.00">
        <route edges="998790351#2 447141131#0 447141131#1 447141131#2 1076627689#0 1076627689#1 1076627690 562439576 996679781#0 996679781#1 996679781#2 996679781#3 80499778#0 80499778#1 80499778#2 80499778#3 80499778#4 80499778#5 80499778#6 562340247#0 562340247#1 562340247#2 562340247#3 562340247#4 562340247#5 562340245 23133709#0 23133709#1 23133709#2 23133709#3 23133709#4 23133709#5 562340241 562340248#0 391534135#0 391534135#1 391534135#2 391534135#3 391534135#4 391534135#5 391534135#6"/>
    </vehicle>
    <vehicle id="30" depart="30.00">
        <route edges="24583488#2 24583488#3 -24583488#3 -24583488#2 -24583488#1 -24583488#0 997761546#1 570616029#0 570616029#1 564223496#0 564223496#1 578543605 564223494#0 564223494#1 564223494#2 564223494#3 554665389#0 554665389#1 554665389#2 578543604 578543606 730111073#0 730111073#1 730111073#2 446922590#0 446922590#1 446922590#2 446922590#3 446922590#4 446922590#5 446922590#6 596349216 572511732#0 572511732#1 572511732#2 572511732#3 572511732#4 572511732#5 572511732#6 572511732#7 572511732#8 446922591 760480736 562340247#0 562340247#1 562340247#2 562340247#3 562340247#4"/>
    </vehicle>
    <vehicle id="31" depart="31.00">
        <route edges="662886374#1 74851429#6 74851429#0 74851429#1 74851429#2 74851429#3 74851429#4 662886376#0 662886376#1 -74851423#9 -74851423#8 -74851423#7 -74851423#6 -74851423#5 -74851423#4 -74851423#3 -74851423#2 -74851423#1 -74851423#0 -1153925787#4 -1153925787#3 -1153925787#2 -1153925787#1 -1076510349#2 -1076510349#1 -1076510349#0 1374634869#0 1374634869#1 1374634869#2 24582921#9 24582921#10 24582921#11 572511732#8"/>
    </vehicle>
    <vehicle id="32" depart="32.00">
        <route edges="-562499724#19 -562499724#18 24583592#4 24583592#5 24583593#2 24583593#3 24583593#4 -998790358#11 -998790358#10 -998790358#9 -998790358#8 -998790358#7 -998790358#6 -998790358#5 -1121186660#2 -1121186660#1 -1121186660#0"/>
    </vehicle>
    <vehicle id="33" depart="33.00">
        <route edges="-995792406#5 -995792406#4 -995792406#3 -995792406#2 -995792406#1 -995792406#0 995792405 -24583586#1 -24583586#0 563791811#5 563791811#6 563791811#7 563791811#8 563679820#0 563679820#1 563679820#2 563679820#3 563679820#4 563679820#5 563679820#6 563679820#7 563679820#8 563679820#9 563679820#10 563679820#11 563679820#12 563679820#13 563679820#14 563679820#15 563679820#16 563679820#17 665921722 523568284#0 523568284#1 523568284#2 523568284#3 523568284#4 523568284#5 24583333#0 24583333#1 24583333#2 24583333#3 24583333#4 24583333#5 24583333#6 446922584#0 446922584#1 446922586#0 995113418 -712992080#2 -712992080#1"/>
    </vehicle>
    <vehicle id="34" depart="34.00">
        <route edges="-553590476#1 -553590476#0 -142865883#3 1277942000#1 1277942000#2 1277942000#3 1277942000#4 1277942000#5 1277942000#6 1277942000#7 1277942000#8 1277941999#0 1277941999#1 24583333#4 24583333#5 24583333#6 446922584#0 446922584#1 446922586#0 446922586#1 995113415 570859666#0 570859666#1 570859666#2 446922583#0 446922583#1 722082942 447141131#0 447141131#1 447141131#2 1076627689#0 1076627689#1 1076627690 562439576 996679781#0 996679781#1 996679781#2 996679781#3 80499778#0"/>
    </vehicle>
    <vehicle id="35" depart="35.00">
        <route edges="446922590#3 446922590#4 446922590#5 446922590#6 596346055#0 596346055#1 596346055#2 1252826818#0 1252826818#1"/>
    </vehicle>
    <vehicle id="36" depart="36.00">
        <route edges="74851423#0 -700293878#0 -291266017#0 291266019#1 1312753970#0 1312753970#1 1312753970#2 1312753970#3 996679780#0 996679781#3 80499778#0 80499778#1 80499778#2 80499778#3 80499778#4 80499778#5 80499778#6 562340247#0 562340247#1 562340247#2 562340247#3 562340247#4 562340247#5 562340243 570616026#0 570616026#1 570616026#2 164675827#0"/>
    </vehicle>
    <vehicle id="37" depart="37.00">
        <route edges="-700293879#1 -74851423#8 -74851423#7 -74851423#6 -700293875#0"/>
    </vehicle>
    <vehicle id="38" depart="38.00">
        <route edges="24583491#2 563974730#3 24583495#6 74851428#2 74851428#3 74851428#4 74851428#5 563791811#0 563791811#1 563791811#2 563791811#3 563791811#4 563791811#5 563791811#6 563791811#7 563791811#8 563679820#0 563679820#1 563679820#2 563679820#3 -343654534#2 -707566694 -707566695#0 -707566696#4 -707566696#3 -707566696#2 -707566696#1"/>
    </vehicle>
    <vehicle id="39" depart="39.00">
        <route edges="24583597 -24583596#1 -142216383 -562499724#3 -562499724#2 -562499724#1 -562499724#0 -562499723 116046167#4 116046167#5 579781481#0 563791811#8 563679820#0 563679820#1 563679820#2 563679820#3 563679820#4 563679820#5 563679820#6 563679820#7 563679820#8 563679820#9 563679820#10 563679820#11 563679820#12 563679820#13 563679820#14 563679820#15 563679820#16 563679820#17 665921722 1312753971#0 1312753971#1 553596950 74851427 164782722 1306141818#0 1306141818#1 265975963#0 -38699586#1 -38699586#0 -1252826817 38699591#8 717454380#0 717454380#1 717454380#2 717454380#3 717454377#0 717454377#1"/>
    </vehicle>
    <vehicle id="40" depart="40.00">
        <route edges="998790358#6 998790358#7 998790358#8 998790358#9 998790358#10 998790358#11 998790358#12 998790358#13 998790351#0 998790351#1 998790351#2 447141131#0 447141131#1 447141131#2 1076627689#0 1076627689#1 1076627690 562439576 996679781#0 996679781#1 996679781#2 996679781#3 80499778#0 80499778#1 80499778#2 80499778#3 80499778#4 80499778#5 80499778#6 562340247#0 562340247#1 562340247#2 562340247#3 562340247#4 562340247#5 562340245 23133709#0 23133709#1 23133709#2 23133709#3 23133709#4 23133709#5 24577480#0 24577480#1 24577480#2 24577480#3 24577480#4 23133486#9 23133486#10 23133486#11 23133486#12 23133486#13 23133486#14 23133486#15 23133486#16 24577487#0"/>
    </vehicle>
    <vehicle id="41" depart="41.00">
        <route edges="-154356520#3 154356520#3 154356520#4 154356520#5 686920282 665921720 665921719 665921717 1312753970#0 1312753970#1 1312753970#2 1312753970#3 996679780#0 996679780#1 996679780#2 563974735#0 563974735#1 563974735#2 563974735#3 563974735#4 563974735#5 563974735#6 563974735#7 563974735#8 563974735#9 563974735#10 563974733#0 563974733#1 995793692#0 995793692#1 995793692#2 -24583589 -1240749877"/>
    </vehicle>
    <vehicle id="42" depart="42.00">
        <route edges="-24582918#0 24582918#0 24582918#1 24582918#2 24582918#3 578543603#3 578543603#4 611866604#0 611866604#1 553596950 74851427 164782722 1306141818#0 1306141818#1 265975963#0 -38699586#1 -38699586#0 -1252826817 38699591#8 38699591#9 38699591#10"/>
    </vehicle>
    <vehicle id="43" depart="43.00">
        <route edges="579781481#6 579781481#7 579781481#8 579781481#9 579781481#10 570616027 23133709#0 23133709#1 23133709#2 23133709#3 23133709#4 596373346 596373332#0 596373332#1 596373332#2 596373332#3 596373332#4 614072001 563791811#2 563791811#3 563791811#4 563791811#5 563791811#6 563791811#7 563791811#8 563679820#0 563679820#1 563679820#2 563679820#3 563679820#4 563679820#5 563679820#6 563679820#7 563679820#8 563679820#9 563679820#10 563679820#11 563679820#12 563679820#13 563679820#14 563679820#15 563679820#16 563679820#17 665921722 1312753971#0 1312753971#1 553596950 74851427 164782722 -265975966#5 1312753969#0"/>
    </vehicle>
    <vehicle id="44" depart="44.00">
        <route edges="-1277942000#6 -1277942000#5 -1277942000#4 -1277942000#3 -1277942000#2 -1277942000#1 -1277942000#0 1277941998#0 1277941998#1 74851429#4 662886376#0 662886376#1 -74851423#9 -74851423#8 -74851423#7 -74851423#6 -74851423#5 -74851423#4 -74851423#3 -74851423#2 -74851423#1 -74851423#0 -1153925787#4 -1153925787#3 -1153925787#2 -1153925787#1 -1153925787#0 1153925787#0"/>
    </vehicle>
    <vehicle id="45" depart="45.00">
        <route edges="998790358#4 998790358#5 998790358#6 998790358#7 998790358#8 998790358#9 998790358#10 998790358#11 998790358#12 998790358#13 998790351#0 998790351#1 998790351#2 447141131#0 447141131#1 447141131#2 1076627689#0 1076627689#1 1076627690 562439576 996679781#0 996679781#1 996679781#2 996679781#3 80499778#0 80499778#1 80499778#2 80499778#3 80499778#4 80499778#5 80499778#6 562340247#0 562340247#1 562340247#2 562340247#3 562340247#4 562340247#5 562340245 23133709#0 23133709#1 23133709#2 23133709#3 23133709#4 23133709#5 562340241 562340248#0 562340248#1 564223496#0 564223496#1 578543605 564223494#0 564223494#1 564223494#2 564223494#3 554665389#0 554665389#1 554665389#2 578543604 578543606 730111073#0 730111073#1 730111073#2 446922590#0 446922590#1 446922590#2 446922590#3 446922590#4 446922590#5 446922590#6 596349216 572511732#0 572511732#1 572511732#2 572511732#3 572511732#4 572511732#5 1386548336 24582920#1"/>
    </vehicle>
    <vehicle id="46" depart="46.00">
        <route edges="-1076782188#1 717454371 -717454380#2 -717454380#1 -717454380#0 38699591#9 38699591#10 38699591#11 38699591#12 28103794#3 28103794#4 572511732#0 572511732#1 572511732#2 572511732#3 572511732#4 572511732#5 572511732#6 572511732#7 572511732#8 446922591 760480736 562340247#0 562340247#1 562340247#2 562340247#3 562340247#4 562340247#5 562340245 23133709#0 23133709#1 23133709#2 23133709#3 23133709#4 596373346 596373332#0 596373332#1 596373332#2 596373332#3 596373332#4 596373332#5 614071999 596373342 563975284#1 712992070 614072000 563679821#0 563679821#1 563679821#2 563679821#3 563679821#4 563679821#5"/>
    </vehicle>
    <vehicle id="47" depart="47.00">
        <route edges="561672577#0 561672577#1 1277942000#3 1277942000#4 1277942000#5 1277942000#6 1277942000#7 1277942000#8 1277941999#0 1277941999#1 24583333#4 24583333#5 24583333#6 446922584#0 446922584#1 446922586#0 446922586#1 995113415 570859666#0 570859666#1 570859666#2 446922583#0 446922583#1 722082942 447141131#0 447141131#1 447141131#2 1076627689#0 1076627689#1 1076627690 562439576 996679781#0 996679781#1 996679781#2 996679781#3 665921722 1312753971#0 1312753971#1 611866602#0 24582921#0 24582921#1 24582921#2 24582921#3 24582921#4 24582921#5 24582921#6 24582921#7 24582921#8"/>
    </vehicle>
    <vehicle id="48" depart="48.00">
        <route edges="-700293880#0 -291266017#2 -291266017#1 -291266017#0 291266019#1 1312753970#0 1312753970#1 1312753970#2 1312753970#3 996679780#0 996679780#1 996679780#2 563974735#0 563974735#1 563974735#2 563974735#3 563974735#4 563974735#5 563974735#6 563974735#7 563974735#8 563974735#9 563974735#10 563974733#0 563974733#1 995793692#0 995793692#1 995793692#2 995793692#3 995793692#4 995793692#5 995793692#6 995793692#7 563975284#0 563975284#1 712992070 614072000 563679821#0 563679821#1 -235103610#4 -235103610#3 423553702#0 423553702#1"/>
    </vehicle>
    <vehicle id="49" depart="49.00">
        <route edges="-24582918#3 -24582918#2 -24582918#1 -24582918#0 24582921#10 24582921#11 572511732#8 446922591 760480736 562340247#0 562340247#1 562340247#2 562340247#3 562340247#4 562340247#5 562340243 570616026#0 570616026#1 570616026#2 570616026#3 570616026#4 570616026#5 570616026#6 570616026#7 570616026#8 570616026#9 570616026#10 570616026#11 563975285 563679836#0 563679836#1 563679836#2 563679836#3 563679836#4 563679836#5 563679836#6 563679836#7 562499724#0 562499724#1 562499724#2 562499724#3 142216383"/>
    </vehicle>
    <vehicle id="50" depart="50.00">
        <route edges="154356520#1 154356520#2 154356520#3 154356520#4 154356520#5 686920282 665921720 665921719 665921717 1312753970#0 1312753970#1 1312753970#2 1312753970#3 996679780#0 996679780#1 996679780#2 563974735#0 563974735#1 563974735#2 563974735#3 563974735#4 563974735#5 563974735#6 563974735#7 563974735#8 563974735#9 563974735#10 563974733#0 563974733#1 995793692#0 995793692#1 24583586#1 995792407 995792405"/>
    </vehicle>
    <vehicle id="51" depart="51.00">
        <route edges="706373643 563679820#1 563679820#2 563679820#3 -343654534#2 -707566694 -707566695#0 -707566696#4 -707566696#3 -707566696#2"/>
    </vehicle>
    <vehicle id="52" depart="52.00">
        <route edges="24577480#2 23133600#0 23133600#1 23133600#2 23133600#3 1375201075 760480737 578543603#1 578543603#2 578543603#3 578543603#4 611866604#0 611866604#1 553596950 74851427 164782722 1306141818#0 1306141818#1 265975963#0 -38699586#1"/>
    </vehicle>
    <vehicle id="53" depart="53.00">
        <route edges="720546573#7 720546573#8 720546573#9 563974732#1 563974732#2 563974735#0 563974735#1 563974735#2 563974735#3 563974735#4 563974735#5 563974735#6 563974735#7 563974735#8 563974735#9 563974735#10 563974733#0 579781481#0 563791811#8 563679820#0 563679820#1 563679820#2 563679820#3 563679820#4 563679820#5 563679820#6 563679820#7 563679820#8 563679820#9 563679820#10 563679820#11 563679820#12 563679820#13 563679820#14 563679820#15 563679820#16 563679820#17 665921722 1312753971#0 1312753971#1 611866602#0 611866602#1 611866602#2 611866602#3 611866602#4 1153925787#4 74851423#0 700293878#1"/>
    </vehicle>
    <vehicle id="54" depart="54.00">
        <route edges="-74851423#4 -74851423#3 -74851423#2 -74851423#1 -74851423#0 291266019#0 291266019#1 1312753970#0 1312753970#1 1312753970#2 1312753970#3 996679780#0 996679781#3 80499778#0 80499778#1 80499778#2 80499778#3 80499778#4 80499778#5 80499778#6 562340247#0 562340247#1 562340247#2 562340247#3 562340247#4 562340247#5 562340245 23133709#0 23133709#1 23133709#2 23133709#3 23133709#4 23133709#5 562340241 562340248#0 391534135#0 391534135#1 391534135#2 391534135#3 391534135#4 391534135#5"/>
    </vehicle>
    <vehicle id="55" depart="55.00">